
     RDKit          3D

 65 69  0  0  0  0  0  0  0  0999 V2000
    8.6143    1.8069   -0.8240 C   0  0  0  0  0  0  0  0  0  0  0  0
    8.4458    0.4119   -0.6863 O   0  0  0  0  0  0  0  0  0  0  0  0
    7.2047   -0.1387   -0.9941 C   0  0  0  0  0  0  0  0  0  0  0  0
    6.1594    0.6512   -1.4249 C   0  0  0  0  0  0  0  0  0  0  0  0
    4.9144    0.0885   -1.7317 C   0  0  0  0  0  0  0  0  0  0  0  0
    4.6957   -1.2654   -1.6132 C   0  0  0  0  0  0  0  0  0  0  0  0
    3.3584   -1.8830   -1.9306 C   0  0  0  0  0  0  0  0  0  0  0  0
    2.5067   -1.9241   -0.6792 C   0  0  0  0  0  0  0  0  0  0  0  0
    2.3041   -0.6234   -0.1844 N   0  0  0  0  0  0  0  0  0  0  0  0
    1.5033    0.2812   -0.9005 C   0  0  0  0  0  0  0  0  0  0  0  0
    0.0732    0.4181   -0.4248 C   0  0  0  0  0  0  0  0  0  0  0  0
   -0.0386    0.5579    1.0523 C   0  0  0  0  0  0  0  0  0  0  0  0
    0.8933   -0.3434    1.8128 C   0  0  0  0  0  0  0  0  0  0  0  0
    2.2547   -0.4302    1.2091 C   0  0  0  0  0  0  0  0  0  0  0  0
   -1.3903    0.2795    1.4779 N   0  0  0  0  0  0  0  0  0  0  0  0
   -2.4883    1.0575    1.0161 C   0  0  0  0  0  0  0  0  0  0  0  0
   -2.3646    2.1139    0.1689 N   0  0  0  0  0  0  0  0  0  0  0  0
   -3.5666    2.6615   -0.0666 C   0  0  0  0  0  0  0  0  0  0  0  0
   -3.9632    3.7305   -0.8338 C   0  0  0  0  0  0  0  0  0  0  0  0
   -5.2928    4.0564   -0.8689 C   0  0  0  0  0  0  0  0  0  0  0  0
   -6.2423    3.3421   -0.1561 C   0  0  0  0  0  0  0  0  0  0  0  0
   -5.8410    2.2819    0.6031 C   0  0  0  0  0  0  0  0  0  0  0  0
   -4.5109    1.9269    0.6599 C   0  0  0  0  0  0  0  0  0  0  0  0
   -3.7921    0.9645    1.2963 N   0  0  0  0  0  0  0  0  0  0  0  0
   -4.3971   -0.0192    2.1621 C   0  0  0  0  0  0  0  0  0  0  0  0
   -4.8590   -1.2456    1.4375 C   0  0  0  0  0  0  0  0  0  0  0  0
   -3.9902   -2.2744    1.2305 C   0  0  0  0  0  0  0  0  0  0  0  0
   -4.4277   -3.4238    0.5577 C   0  0  0  0  0  0  0  0  0  0  0  0
   -5.7213   -3.5487    0.0940 C   0  0  0  0  0  0  0  0  0  0  0  0
   -6.0774   -4.6874   -0.5485 F   0  0  0  0  0  0  0  0  0  0  0  0
   -6.5786   -2.4941    0.3168 C   0  0  0  0  0  0  0  0  0  0  0  0
   -6.1501   -1.3650    0.9772 C   0  0  0  0  0  0  0  0  0  0  0  0
    5.7422   -2.0534   -1.1826 C   0  0  0  0  0  0  0  0  0  0  0  0
    6.9696   -1.4969   -0.8803 C   0  0  0  0  0  0  0  0  0  0  0  0
    8.3675    2.0588   -1.8874 H   0  0  0  0  0  0  0  0  0  0  0  0
    7.8203    2.2979   -0.2193 H   0  0  0  0  0  0  0  0  0  0  0  0
    9.6147    2.1480   -0.5212 H   0  0  0  0  0  0  0  0  0  0  0  0
    6.3279    1.7180   -1.5196 H   0  0  0  0  0  0  0  0  0  0  0  0
    4.1139    0.7265   -2.0667 H   0  0  0  0  0  0  0  0  0  0  0  0
    2.8526   -1.2452   -2.6670 H   0  0  0  0  0  0  0  0  0  0  0  0
    3.5000   -2.8772   -2.3934 H   0  0  0  0  0  0  0  0  0  0  0  0
    1.5822   -2.4765   -0.9496 H   0  0  0  0  0  0  0  0  0  0  0  0
    3.0052   -2.5308    0.1035 H   0  0  0  0  0  0  0  0  0  0  0  0
    1.9920    1.2995   -0.8524 H   0  0  0  0  0  0  0  0  0  0  0  0
    1.4375    0.0318   -1.9843 H   0  0  0  0  0  0  0  0  0  0  0  0
   -0.5361   -0.3937   -0.8616 H   0  0  0  0  0  0  0  0  0  0  0  0
   -0.3231    1.3706   -0.8866 H   0  0  0  0  0  0  0  0  0  0  0  0
    0.1499    1.6325    1.3540 H   0  0  0  0  0  0  0  0  0  0  0  0
    1.0074    0.0979    2.8352 H   0  0  0  0  0  0  0  0  0  0  0  0
    0.4721   -1.3619    1.9580 H   0  0  0  0  0  0  0  0  0  0  0  0
    2.8183    0.5208    1.4432 H   0  0  0  0  0  0  0  0  0  0  0  0
    2.7730   -1.2834    1.7042 H   0  0  0  0  0  0  0  0  0  0  0  0
   -1.5816   -0.4911    2.1396 H   0  0  0  0  0  0  0  0  0  0  0  0
   -3.2629    4.3040   -1.3951 H   0  0  0  0  0  0  0  0  0  0  0  0
   -5.6342    4.8838   -1.4567 H   0  0  0  0  0  0  0  0  0  0  0  0
   -7.2739    3.6420   -0.2194 H   0  0  0  0  0  0  0  0  0  0  0  0
   -6.5700    1.7290    1.1636 H   0  0  0  0  0  0  0  0  0  0  0  0
   -5.2322    0.4591    2.6964 H   0  0  0  0  0  0  0  0  0  0  0  0
   -3.6488   -0.3954    2.9138 H   0  0  0  0  0  0  0  0  0  0  0  0
   -2.9602   -2.2616    1.5646 H   0  0  0  0  0  0  0  0  0  0  0  0
   -3.7066   -4.2263    0.4100 H   0  0  0  0  0  0  0  0  0  0  0  0
   -7.6040   -2.5950   -0.0510 H   0  0  0  0  0  0  0  0  0  0  0  0
   -6.8631   -0.5924    1.1199 H   0  0  0  0  0  0  0  0  0  0  0  0
    5.6093   -3.1298   -1.0761 H   0  0  0  0  0  0  0  0  0  0  0  0
    7.8050   -2.0943   -0.5406 H   0  0  0  0  0  0  0  0  0  0  0  0
  1  2  1  0
  2  3  1  0
  3  4  2  0
  4  5  1  0
  5  6  2  0
  6  7  1  0
  7  8  1  0
  8  9  1  0
  9 10  1  0
 10 11  1  0
 11 12  1  0
 12 13  1  0
 13 14  1  0
 12 15  1  0
 15 16  1  0
 16 17  2  0
 17 18  1  0
 18 19  2  0
 19 20  1  0
 20 21  2  0
 21 22  1  0
 22 23  2  0
 23 24  1  0
 24 25  1  0
 25 26  1  0
 26 27  2  0
 27 28  1  0
 28 29  2  0
 29 30  1  0
 29 31  1  0
 31 32  2  0
  6 33  1  0
 33 34  2  0
 34  3  1  0
 14  9  1  0
 24 16  1  0
 32 26  1  0
 23 18  1  0
  1 35  1  0
  1 36  1  0
  1 37  1  0
  4 38  1  0
  5 39  1  0
  7 40  1  0
  7 41  1  0
  8 42  1  0
  8 43  1  0
 10 44  1  0
 10 45  1  0
 11 46  1  0
 11 47  1  0
 12 48  1  0
 13 49  1  0
 13 50  1  0
 14 51  1  0
 14 52  1  0
 15 53  1  0
 19 54  1  0
 20 55  1  0
 21 56  1  0
 22 57  1  0
 25 58  1  0
 25 59  1  0
 27 60  1  0
 28 61  1  0
 31 62  1  0
 32 63  1  0
 33 64  1  0
 34 65  1  0
M  END
